@<TRIPOS>MOLECULE
EPR1.pdb
48 50 1 0 0
SMALL
NO_CHARGES


@<TRIPOS>ATOM
      1 C17       115.9320   78.0920    0.0820 C.3       1 NIL    0.0000
      2 N3        115.1880   79.3230   -0.3000 N.am      1 NIL    0.0000
      3 C         114.2520   79.8640    0.5370 C.2       1 NIL    0.0000
      4 C18       115.4290   79.8040   -1.6910 C.3       1 NIL    0.0000
      5 C1        113.2750   80.9040   -0.0160 C.3       1 NIL    0.0000
      6 O         114.1620   79.5100    1.6990 O.2       1 NIL    0.0000
      7 C2        113.6970   82.3220    0.4230 C.3       1 NIL    0.0000
      8 N         111.8790   80.7000    0.4290 N.am      1 NIL    0.0000
      9 C16       111.7420   78.4190   -0.4990 C.3       1 NIL    0.0000
     10 C3        112.3680   83.0570    0.6310 C.3       1 NIL    0.0000
     11 C4        111.3730   81.9500    1.0130 C.3       1 NIL    0.0000
     12 C15       111.1230   79.5760    0.2770 C.2       1 NIL    0.0000
     13 C5        111.9310   83.8090   -0.6050 C.2       1 NIL    0.0000
     14 N1        112.4180   84.1630    1.5700 N.am      1 NIL    0.0000
     15 O4        109.9950   79.5140    0.7280 O.2       1 NIL    0.0000
     16 N2        111.7870   85.1170   -0.2820 N.am      1 NIL    0.0000
     17 O1        111.7280   83.3300   -1.7050 O.2       1 NIL    0.0000
     18 C6        112.0610   85.3400    1.0300 C.2       1 NIL    0.0000
     19 C7        111.3180   86.1220   -1.2590 C.3       1 NIL    0.0000
     20 O3        111.9970   86.3880    1.6400 O.2       1 NIL    0.0000
     21 C8        111.4600   87.5910   -0.9110 C.ar      1 NIL    0.0000
     22 C9        112.6120   88.2360   -1.1140 C.ar      1 NIL    0.0000
     23 C13       110.4330   88.2630   -0.3830 C.ar      1 NIL    0.0000
     24 C10       112.7380   89.5260   -0.7950 C.ar      1 NIL    0.0000
     25 C12       110.5570   89.5510   -0.0600 C.ar      1 NIL    0.0000
     26 C11       111.7080   90.1990   -0.2610 C.ar      1 NIL    0.0000
     27 H121      109.7070   90.0760    0.3720 H         1 NIL    0.0000
     28 H101      113.6970   90.0060   -0.9750 H         1 NIL    0.0000
     29 H131      109.4870   87.7580   -0.2070 H         1 NIL    0.0000
     30 H91       113.4630   87.7100   -1.5400 H         1 NIL    0.0000
     31 H71       110.2620   85.9120   -1.4530 H         1 NIL    0.0000
     32 H72       111.8520   85.9440   -2.1970 H         1 NIL    0.0000
     33 H41       111.3410   81.8380    2.1000 H         1 NIL    0.0000
     34 H42       110.3720   82.1790    0.6380 H         1 NIL    0.0000
     35 H163      112.0440   78.8080   -1.4740 H         1 NIL    0.0000
     36 H162      112.6430   78.0990    0.0220 H         1 NIL    0.0000
     37 H21       114.2440   82.2810    1.3700 H         1 NIL    0.0000
     38 H22       114.3340   82.8080   -0.3190 H         1 NIL    0.0000
     39 H1        113.2450   80.8540   -1.1060 H         1 NIL    0.0000
     40 H183      115.1790   80.8660   -1.7570 H         1 NIL    0.0000
     41 H181      114.7380   79.2670   -2.3450 H         1 NIL    0.0000
     42 H171      115.7650   77.8470    1.1330 H         1 NIL    0.0000
     43 H173      117.0000   78.2720   -0.0330 H         1 NIL    0.0000
     44 HN1       112.6610   84.0390    2.5420 H         1 NIL    0.0000
     45 H172      115.6240   77.2590   -0.5490 H         1 NIL    0.0000
     46 H182      116.4630   79.6290   -1.9900 H         1 NIL    0.0000
     47 H161      111.0360   77.5950   -0.6060 H         1 NIL    0.0000
     48 H111      111.8070   91.2420    0.0010 H         1 NIL    0.0000
@<TRIPOS>BOND
     1   13   17 2
     2   13   10 1
     3   13   16 am
     4    5    7 1
     5    5    8 1
     6    5    3 1
     7    5   39 1
     8   24   22 ar
     9   24   26 ar
    10   24   28 1
    11   26   25 ar
    12   26   48 1
    13   25   23 ar
    14   25   27 1
    15   23   21 ar
    16   23   29 1
    17   12   15 2
    18   12    8 am
    19   12    9 1
    20    9   47 1
    21    9   35 1
    22    9   36 1
    23    1   43 1
    24    1   42 1
    25    1    2 1
    26    1   45 1
    27    4   46 1
    28    4    2 1
    29    4   40 1
    30    4   41 1
    31    7   10 1
    32    7   37 1
    33    7   38 1
    34   10   11 1
    35   10   14 1
    36   11    8 1
    37   11   33 1
    38   11   34 1
    39    3    6 2
    40    3    2 am
    41   18   14 am
    42   18   16 am
    43   18   20 2
    44   19   16 1
    45   19   21 1
    46   19   31 1
    47   19   32 1
    48   21   22 ar
    49   22   30 1
    50   44   14 1
@<TRIPOS>SUBSTRUCTURE
     1 NIL     1 RESIDUE           4 A     NIL     0 ROOT
