@<TRIPOS>MOLECULE
NIL
66 68 1 0 0
POLYMER
CHARGES


@<TRIPOS>ATOM
      1 C22       143.0110   95.8600    0.1740 C.3       1 UNK    0.0000
      2 C21       144.2250   96.6000    0.7400 C.2       1 UNK    0.0000
      3 O5        144.3880   96.7110    1.9400 O.2       1 UNK    0.0000
      4 N         145.1510   97.0620   -0.1470 N.am      1 UNK    0.0000
      5 C4        144.7880   97.9840   -1.2380 C.3       1 UNK    0.0000
      6 C1        146.5560   97.3940    0.1650 C.3       1 UNK    0.0000
      7 C3        145.7340   99.2080   -1.1280 C.3       1 UNK    0.0000
      8 C         147.2030   96.7930    1.4080 C.2       1 UNK    0.0000
      9 C2        146.6290   98.9230    0.0910 C.3       1 UNK    0.0000
     10 C6        146.5950   99.3750   -2.3590 C.2       1 UNK    0.0000
     11 N1        145.0930  100.5260   -1.1100 N.am      1 UNK    0.0000
     12 O         147.3610   97.4730    2.4030 O.2       1 UNK    0.0000
     13 N3        147.6310   95.5000    1.4730 N.am      1 UNK    0.0000
     14 N2        146.4670  100.6500   -2.7920 N.am      1 UNK    0.0000
     15 O1        147.3060   98.5290   -2.8640 O.2       1 UNK    0.0000
     16 C7        145.5610  101.3500   -2.0720 C.2       1 UNK    0.0000
     17 C8        144.0470  100.8040   -0.1030 C.3       1 UNK    0.0000
     18 C23       147.6000   94.3180    0.5630 C.3       1 UNK    0.0000
     19 C14       147.3160  101.2470   -3.8340 C.3       1 UNK    0.0000
     20 O2        145.2330  102.5060   -2.2650 O.2       1 UNK    0.0000
     21 C9        144.0320  102.2320    0.3980 C.2       1 UNK    0.0000
     22 C15       148.5390  101.8560   -3.1750 C.2       1 UNK    0.0000
     23 O4        145.1780  102.5550    1.0540 O.3       1 UNK    0.0000
     24 O3        143.1260  103.0000    0.1360 O.2       1 UNK    0.0000
     25 C16       148.6110  103.1720   -2.9450 C.2       1 UNK    0.0000
     26 C20       149.5590  101.0800   -2.7860 C.2       1 UNK    0.0000
     27 C10       145.4890  103.8950    1.5500 C.3       1 UNK    0.0000
     28 C17       149.6770  103.6980   -2.3370 C.2       1 UNK    0.0000
     29 C19       150.6220  101.6020   -2.1750 C.2       1 UNK    0.0000
     30 C11       145.5890  104.9020    0.3740 C.3       1 UNK    0.0000
     31 C12       146.8740  103.7890    2.2280 C.3       1 UNK    0.0000
     32 C13       144.4440  104.3440    2.6030 C.3       1 UNK    0.0000
     33 C18       150.6820  102.9140   -1.9500 C.2       1 UNK    0.0000
     34 H181      151.5490  103.3360   -1.4500 H         1 UNK    0.0000
     35 H131      144.2750  103.5560    3.3420 H         1 UNK    0.0000
     36 H132      143.4870  104.5910    2.1410 H         1 UNK    0.0000
     37 H133      144.7940  105.2330    3.1350 H         1 UNK    0.0000
     38 H121      147.6430  103.5090    1.5030 H         1 UNK    0.0000
     39 H122      146.8650  103.0420    3.0240 H         1 UNK    0.0000
     40 H123      147.1600  104.7490    2.6650 H         1 UNK    0.0000
     41 H111      146.2570  104.5220   -0.4020 H         1 UNK    0.0000
     42 H112      145.9890  105.8590    0.7210 H         1 UNK    0.0000
     43 H113      144.6140  105.0940   -0.0760 H         1 UNK    0.0000
     44 H191      151.4380  100.9580   -1.8600 H         1 UNK    0.0000
     45 H171      149.7280  104.7670   -2.1500 H         1 UNK    0.0000
     46 H201      149.5260  100.0100   -2.9630 H         1 UNK    0.0000
     47 H161      147.7960  103.8230   -3.2510 H         1 UNK    0.0000
     48 H141      146.7470  102.0120   -4.3700 H         1 UNK    0.0000
     49 H142      147.6160  100.4810   -4.5550 H         1 UNK    0.0000
     50 H231      146.6900   93.7770    0.8320 H         1 UNK    0.0000
     51 H81       144.1770  100.1570    0.7690 H         1 UNK    0.0000
     52 H82       143.0700  100.6020   -0.5490 H         1 UNK    0.0000
     53 H21       146.2140   99.3690    0.9980 H         1 UNK    0.0000
     54 H22       147.6520   99.2870   -0.0400 H         1 UNK    0.0000
     55 H11       147.1610   97.0550   -0.6670 H         1 UNK    0.0000
     56 H51       143.7630   98.3260   -1.1210 H         1 UNK    0.0000
     57 H52       144.9000   97.4740   -2.1980 H         1 UNK    0.0000
     58 H223      143.3850   95.3480   -0.7100 H         1 UNK    0.0000
     59 C24       148.2578   95.1744    2.7366 C.3       1 UNK    0.0000
     60 H241      148.5768   94.1322    2.7266 H         1 UNK    0.0000
     61 H242      149.1243   95.8179    2.8885 H         1 UNK    0.0000
     62 H243      147.5445   95.3283    3.5463 H         1 UNK    0.0000
     63 H221      142.6263   95.1428    0.8990 H         1 UNK    0.0000
     64 H222      142.2321   96.5704   -0.1031 H         1 UNK    0.0000
     65 H232      148.4781   93.6915    0.7193 H         1 UNK    0.0000
     66 H233      147.5506   94.6442   -0.4759 H         1 UNK    0.0000
@<TRIPOS>BOND
     1    1   58 1
     2    2    4 1
     3    2    1 1
     4    3    2 2
     5    4    5 1
     6    5   56 1
     7    5   57 1
     8    6    9 1
     9    6    4 1
    10    6   55 1
    11    7    5 1
    12    8    6 1
    13    8   12 2
    14    8   13 1
    15    9    7 1
    16    9   53 1
    17    9   54 1
    18   10    7 1
    19   11   16 1
    20   11    7 1
    21   13   59 1
    22   14   10 1
    23   15   10 2
    24   16   14 1
    25   17   11 1
    26   17   51 1
    27   17   52 1
    28   18   13 1
    29   18   50 1
    30   19   14 1
    31   19   48 1
    32   19   49 1
    33   20   16 2
    34   21   17 1
    35   22   19 1
    36   23   21 1
    37   24   21 2
    38   25   22 2
    39   25   47 1
    40   26   29 2
    41   26   22 1
    42   26   46 1
    43   27   23 1
    44   28   25 1
    45   28   45 1
    46   29   33 1
    47   29   44 1
    48   30   27 1
    49   30   41 1
    50   30   42 1
    51   30   43 1
    52   31   27 1
    53   31   38 1
    54   31   39 1
    55   31   40 1
    56   32   27 1
    57   32   35 1
    58   32   36 1
    59   32   37 1
    60   33   28 2
    61   33   34 1
    62   60   59 1
    63   61   59 1
    64   62   59 1
    65   63    1 1
    66   64    1 1
    67   65   18 1
    68   66   18 1
@<TRIPOS>SUBSTRUCTURE
     1 UNK     1 RESIDUE           4 A     UNK     0 ROOT
