@<TRIPOS>MOLECULE
NIL
45 47 1 0 0
POLYMER
CHARGES
@<TRIPOS>ATOM
      1 C12       123.4820   78.2810    0.9300 C.3       1 NIL      0.000000 
      2 C11       122.8990   77.1910    0.0400 C.2       1 NIL      0.000000 
      3 O3        121.9500   77.4080   -0.6860 O.2       1 NIL      0.000000 
      4 N         123.4490   75.9570    0.0870 N.am      1 NIL      0.000000 
      5 C4        124.7490   75.5990    0.6700 C.3       1 NIL      0.000000 
      6 C1        122.8470   74.7770   -0.5510 C.3       1 NIL      0.000000 
      7 C3        125.1110   74.2010    0.1300 C.3       1 NIL      0.000000 
      8 C         121.8820   74.0580    0.3920 C.2       1 NIL      0.000000 
      9 C2        124.0240   73.8540   -0.9050 C.3       1 NIL      0.000000 
     10 C13       120.3560   73.4510   -1.5250 C.3       1 NIL      0.000000 
     11 C6        126.5050   74.1590   -0.4530 C.2       1 NIL      0.000000 
     12 N1        125.2640   73.1970    1.1730 N.am      1 NIL      0.000000 
     13 O         122.0540   74.0830    1.5970 O.2       1 NIL      0.000000 
     14 N3        120.8910   73.2970   -0.1530 N.am      1 NIL      0.000000 
     15 N2        127.2230   73.2380    0.2310 N.am      1 NIL      0.000000 
     16 O2        126.9220   74.8370   -1.3720 O.2       1 NIL      0.000000 
     17 C5        126.4920   72.6510    1.2080 C.2       1 NIL      0.000000 
     18 C14       120.3360   72.1380    0.5720 C.3       1 NIL      0.000000 
     19 C7        128.6330   72.9280   -0.0530 C.3       1 NIL      0.000000 
     20 O1        126.8640   71.7940    1.9840 O.2       1 NIL      0.000000 
     21 C8        128.8130   72.0720   -1.2960 C.3       1 NIL      0.000000 
     22 C10       128.6150   70.5860   -1.2320 C.3       1 NIL      0.000000 
     23 C9        129.9910   71.1490   -1.4170 C.3       1 NIL      0.000000 
     24 HC91      130.6810   71.0870   -0.5810 H         1 NIL      0.000000 
     25 HC92      130.4540   71.0450   -2.3940 H         1 NIL      0.000000 
     26 HC101     128.1470   70.1010   -2.0840 H         1 NIL      0.000000 
     27 HC102     128.3740   70.1430   -0.2700 H         1 NIL      0.000000 
     28 HC81      128.4950   72.5700   -2.2080 H         1 NIL      0.000000 
     29 HC71      129.0770   72.4210    0.8080 H         1 NIL      0.000000 
     30 HC72      129.1760   73.8640   -0.2180 H         1 NIL      0.000000 
     31 HC141     119.3190   71.9360    0.2380 H         1 NIL      0.000000 
     32 HC142     120.2990   72.3510    1.6430 H         1 NIL      0.000000 
     33 HC131     119.6700   72.6350   -1.7600 H         1 NIL      0.000000 
     34 HC132     121.1770   73.4120   -2.2450 H         1 NIL      0.000000 
     35 HC21      123.7460   72.7970   -0.8880 H         1 NIL      0.000000 
     36 HC22      124.3680   74.0990   -1.9130 H         1 NIL      0.000000 
     37 HC11      122.3310   75.0760   -1.4630 H         1 NIL      0.000000 
     38 HC41      124.6750   75.5970    1.7610 H         1 NIL      0.000000 
     39 HC42      125.4980   76.3320    0.3600 H         1 NIL      0.000000 
     40 HC121     123.0380   78.1360    1.9180 H         1 NIL      0.000000 
     41 HC122     124.5570   78.1560    1.0590 H         1 NIL      0.000000 
     42 HN        124.5140   72.9420    1.7960 H         1 NIL      0.000000 
     43 HC123     123.2483   79.2711    0.5385 H         1 NIL      0.000000 
     44 HC133     119.8359   74.4050   -1.6118 H         1 NIL      0.000000 
     45 HC143     120.9602   71.2622    0.3945 H         1 NIL      0.000000 
@<TRIPOS>BOND
     1    1    2 1
     2    1   40 1
     3    1   41 1
     4    2    4 1
     5    3    2 2
     6    4    5 1
     7    4    6 1
     8    5   38 1
     9    5   39 1
    10    6   37 1
    11    7    5 1
    12    8    6 1
    13    9    7 1
    14    9    6 1
    15    9   35 1
    16    9   36 1
    17   10   14 1
    18   10   33 1
    19   10   34 1
    20   11    7 1
    21   12   17 1
    22   12    7 1
    23   12   42 1
    24   13    8 2
    25   14    8 1
    26   15   11 1
    27   16   11 2
    28   17   15 1
    29   18   14 1
    30   18   31 1
    31   18   32 1
    32   19   15 1
    33   19   30 1
    34   20   17 2
    35   21   19 1
    36   22   21 1
    37   23   22 1
    38   23   21 1
    39   24   23 1
    40   25   23 1
    41   26   22 1
    42   27   22 1
    43   28   21 1
    44   29   19 1
    45   43    1 1
    46   44   10 1
    47   45   18 1
@<TRIPOS>SUBSTRUCTURE
     1 NIL     1 RESIDUE           4 A     NIL     0 ROOT
